36
Atoms. Timestep: 0
C 7.00943 7.80581 0.44945
H 0.1705 7.99483 0.62072
O 7.25548 0.8066 10.325
C 0.05364 1.29545 9.10118
H 1.0027 1.48365 9.24858
C 7.11973 2.59904 8.79186
H 7.10497 3.1547 9.58593
H 6.2057 2.41084 8.53444
O 7.78063 3.28343 7.74348
C 7.70145 0.24442 8.0445
C 7.30068 7.0318 8.46178
H 0.49852 7.07009 8.47008
O 6.89516 6.02151 7.51616
H 6.74316 0.1434 7.86285
O 0.53448 0.70068 6.82589
C 6.83091 6.64887 9.84439
O 7.62973 5.58969 10.3769
H 5.89099 6.3743 9.81325
C 3.72322 3.7071 3.15863
H 4.68771 3.76087 3.3216
O 3.2074 4.94551 2.73928
C 3.59615 5.35615 1.44074
H 4.55299 5.56472 1.42206
C 2.75594 6.64019 1.16775
H 2.67462 7.15185 1.98881
H 1.86693 6.39006 0.87919
O 3.36389 7.44679 0.17646
C 3.25982 4.28557 0.38925
C 3.9027 2.95753 0.79407
H 4.87664 3.05775 0.82313
O 3.56505 1.89836 10.2959
H 2.29113 4.18698 0.29998
O 3.83419 4.77442 9.54337
C 3.4001 2.58927 2.17357
O 3.95466 1.35248 2.61576
H 2.42276 2.4915 2.12998
