24
Atoms. Timestep: 0
H 4.06948 39.1978 88.1902
H 5.45551 38.0637 88.2345
C 4.37296 38.1516 85.5545
H 4.14227 39.2175 85.5537
H 5.46286 38.1381 85.6835
C 4.37279 38.1525 88.1487
H 2.75022 37.532 89.4015
H 4.14058 41.3511 89.3606
H 2.74954 37.5323 86.8945
H 4.14059 41.3503 86.8537
C 3.83639 37.4463 86.8954
C 3.83596 37.4469 89.4017
C 8.08644 39.9219 89.4017
C 8.08601 39.9213 86.8954
H 7.78181 38.8753 86.8537
H 9.17286 40.0073 86.8945
H 7.78182 38.8761 89.3606
H 9.17218 40.007 89.4015
C 7.54961 40.6275 88.1487
H 6.45954 40.6131 85.6835
H 7.78013 36.7425 90.6537
C 7.54944 40.6266 90.6545
H 6.46689 40.5387 88.2345
H 7.85292 36.7228 88.1902
